Displayed atoms
                    3D
 Schrodinger Suite 2024-1.
 64 68  0  0  1  0            999 V2000
  -23.0950    1.7770   26.6260 C   0  0  0  0  0  0
  -21.9980    1.5510   27.4680 C   0  0  0  0  0  0
  -22.1520    0.8290   28.6480 C   0  0  0  0  0  0
  -25.6240   -0.5280   31.3620 C   0  0  1  0  0  0
  -25.1930   -0.2960   33.8100 C   0  0  0  0  0  0
  -25.8170    0.9850   33.2570 C   0  0  0  0  0  0
  -25.5370    0.9580   31.7590 C   0  0  0  0  0  0
  -25.5980    1.6490   26.2010 C   0  0  0  0  0  0
  -26.1150    2.9700   26.1540 C   0  0  0  0  0  0
  -27.2730    3.1890   25.3930 C   0  0  0  0  0  0
  -27.4490    0.9410   24.8060 C   0  0  0  0  0  0
  -26.2830    0.6370   25.5100 C   0  0  0  0  0  0
  -29.4630    0.1450   23.6910 C   0  0  0  0  0  0
  -30.1940   -1.1860   23.4550 C   0  0  0  0  0  0
  -25.4910    4.1190   26.9190 C   0  0  0  0  0  0
  -25.0860   -2.4410   29.6920 C   0  0  0  0  0  0
  -23.9950   -3.0960   29.1010 C   0  0  0  0  0  0
  -23.3960    0.2940   28.9390 C   0  0  0  0  0  0
  -24.4920    0.5170   28.1370 C   0  0  0  0  0  0
  -24.3740    1.3010   26.9810 C   0  0  0  0  0  0
  -23.6610   -0.4760   30.0390 O   0  0  0  0  0  0
  -25.0270   -0.9190   29.9690 C   0  0  2  0  0  0
  -25.6680   -0.1310   28.7950 C   0  0  0  0  0  0
  -22.8470    2.6430   25.1460 Cl  0  0  0  0  0  0
  -20.7780    2.0360   27.1520 F   0  0  0  0  0  0
  -25.0320   -1.2240   32.5990 N   0  3  0  0  0  0
  -27.9360    2.2090   24.7340 N   0  0  0  0  0  0
  -28.1470   -0.0910   24.2000 O   0  0  0  0  0  0
  -30.5710   -1.7790   24.6780 O   0  0  0  0  0  0
  -25.8330   -0.6410   25.5320 F   0  0  0  0  0  0
  -24.0530   -4.4590   28.8220 C   0  0  0  0  0  0
  -25.1970   -5.1810   29.1400 C   0  0  0  0  0  0
  -26.2940   -4.5450   29.7150 C   0  0  0  0  0  0
  -26.2440   -3.1780   29.9760 C   0  0  0  0  0  0
  -25.0760    3.9670   28.0700 O   0  0  0  0  0  0
  -25.4020    5.2820   26.2520 N   0  0  0  0  0  0
  -24.8160    6.5170   26.7590 C   0  0  0  0  0  0
  -21.3120    0.6960   29.3140 H   0  0  0  0  0  0
  -26.6830   -0.7850   31.3340 H   0  0  0  0  0  0
  -25.8760   -0.7510   34.5260 H   0  0  0  0  0  0
  -24.2100   -0.0700   34.2250 H   0  0  0  0  0  0
  -25.3240    1.8490   33.7010 H   0  0  0  0  0  0
  -26.8940    0.9640   33.4240 H   0  0  0  0  0  0
  -26.3120    1.5180   31.2360 H   0  0  0  0  0  0
  -24.5270    1.3230   31.5740 H   0  0  0  0  0  0
  -27.6830    4.1850   25.3090 H   0  0  0  0  0  0
  -30.0260    0.7470   24.4050 H   0  0  0  0  0  0
  -29.3950    0.6940   22.7520 H   0  0  0  0  0  0
  -29.5410   -1.8660   22.9080 H   0  0  0  0  0  0
  -31.0820   -1.0100   22.8480 H   0  0  0  0  0  0
  -23.0990   -2.5440   28.8580 H   0  0  0  0  0  0
  -26.1290   -0.8330   28.1000 H   0  0  0  0  0  0
  -26.3260    0.6400   29.1970 H   0  0  0  0  0  0
  -24.0510   -1.4080   32.4430 H   0  0  0  0  0  0
  -25.5280   -2.0880   32.7680 H   0  0  0  0  0  0
  -31.0250   -2.6080   24.5050 H   0  0  0  0  0  0
  -23.2110   -4.9520   28.3590 H   0  0  0  0  0  0
  -25.2390   -6.2420   28.9420 H   0  0  0  0  0  0
  -27.1810   -5.1120   29.9560 H   0  0  0  0  0  0
  -27.1060   -2.6870   30.4010 H   0  0  0  0  0  0
  -25.7590    5.3520   25.3100 H   0  0  0  0  0  0
  -24.8850    7.2920   25.9960 H   0  0  0  0  0  0
  -25.3570    6.8360   27.6500 H   0  0  0  0  0  0
  -23.7700    6.3460   27.0110 H   0  0  0  0  0  0
  1  2  2  0  0  0
  1 20  1  0  0  0
  1 24  1  0  0  0
  2  3  1  0  0  0
  2 25  1  0  0  0
  3 18  2  0  0  0
  3 38  1  0  0  0
  4  7  1  0  0  0
  4 22  1  0  0  0
  4 26  1  0  0  0
  4 39  1  0  0  0
  5  6  1  0  0  0
  5 26  1  0  0  0
  5 40  1  0  0  0
  5 41  1  0  0  0
  6  7  1  0  0  0
  6 42  1  0  0  0
  6 43  1  0  0  0
  7 44  1  0  0  0
  7 45  1  0  0  0
  8  9  2  0  0  0
  8 12  1  0  0  0
  8 20  1  0  0  0
  9 10  1  0  0  0
  9 15  1  0  0  0
 10 27  2  0  0  0
 10 46  1  0  0  0
 11 12  2  0  0  0
 11 27  1  0  0  0
 11 28  1  0  0  0
 12 30  1  0  0  0
 13 14  1  0  0  0
 13 28  1  0  0  0
 13 47  1  0  0  0
 13 48  1  0  0  0
 14 29  1  0  0  0
 14 49  1  0  0  0
 14 50  1  0  0  0
 15 35  2  0  0  0
 15 36  1  0  0  0
 16 17  2  0  0  0
 16 22  1  0  0  0
 16 34  1  0  0  0
 17 31  1  0  0  0
 17 51  1  0  0  0
 18 19  1  0  0  0
 18 21  1  0  0  0
 19 20  2  0  0  0
 19 23  1  0  0  0
 21 22  1  0  0  0
 22 23  1  0  0  0
 23 52  1  0  0  0
 23 53  1  0  0  0
 26 54  1  0  0  0
 26 55  1  0  0  0
 29 56  1  0  0  0
 31 32  2  0  0  0
 31 57  1  0  0  0
 32 33  1  0  0  0
 32 58  1  0  0  0
 33 34  2  0  0  0
 33 59  1  0  0  0
 34 60  1  0  0  0
 36 37  1  0  0  0
 36 61  1  0  0  0
 37 62  1  0  0  0
 37 63  1  0  0  0
 37 64  1  0  0  0
M  CHG  1  26   1
M  END
$$$$
